*SPEF "IEEE 1481-1998"
*DESIGN "FIR_filter"
*DATE "Thu Nov 18 19:20:24 2021"
*VENDOR "Cadence Design Systems, Inc."
*PROGRAM "Innovus"
*VERSION "17.11-s080_1"
*DESIGN_FLOW "COUPLING C" "PIN_CAP NONE" "NAME_SCOPE LOCAL"
*DIVIDER /
*DELIMITER :
*BUS_DELIMITER []
*T_UNIT 1 NS
*C_UNIT 1 PF
*R_UNIT 1 OHM
*L_UNIT 1 HENRY

// MMMC spef file for corner 'my_rc'

*NAME_MAP

*1 FE_PHN298_FE_OFN0_rst_n
*2 FE_PHN297_FE_OFN1_rst_n
*3 FE_PHN296_FE_OFN0_rst_n
*4 FE_PHN295_FE_OFN0_rst_n
*5 FE_PHN294_FE_OFN1_rst_n
*6 FE_PHN293_FE_OFN0_rst_n
*7 FE_PHN292_FE_OFN1_rst_n
*8 FE_PHN291_FE_OFN0_rst_n
*9 FE_PHN290_FE_OFN1_rst_n
*10 FE_PHN289_FE_OFN0_rst_n
*11 FE_PHN288_FE_OFN1_rst_n
*12 FE_PHN287_FE_OFN0_rst_n
*13 FE_PHN286_FE_OFN1_rst_n
*14 FE_PHN285_FE_OFN0_rst_n
*15 FE_PHN284_FE_OFN1_rst_n
*16 FE_PHN283_coeff_reg_i_9_n40
*17 FE_PHN282_coeff_reg_i_10_n36
*18 FE_PHN281_coeff_reg_i_0_n36
*19 FE_PHN280_coeff_reg_i_5_n37
*20 FE_PHN279_coeff_reg_i_4_n33
*21 FE_PHN278_x_reg_n26
*22 FE_PHN277_coeff_reg_i_1_n39
*23 FE_PHN276_coeff_reg_i_5_n33
*24 FE_PHN275_coeff_reg_i_6_n36
*25 FE_PHN274_coeff_reg_i_1_n37
*26 FE_PHN273_coeff_reg_i_2_n37
*27 FE_PHN272_coeff_reg_i_2_n35
*28 FE_PHN271_coeff_reg_i_2_n34
*29 FE_PHN270_x_reg_n27
*30 FE_PHN269_coeff_reg_i_7_n34
*31 FE_PHN268_coeff_reg_i_7_n33
*32 FE_PHN267_FE_OFN0_rst_n
*33 FE_PHN266_coeff_reg_i_7_n41
*34 FE_PHN265_coeff_reg_i_7_n42
*35 FE_PHN264_coeff_reg_i_2_n40
*36 FE_PHN263_coeff_reg_i_3_n37
*37 FE_PHN262_x_reg_n24
*38 FE_PHN261_FE_OFN1_rst_n
*39 FE_PHN260_coeff_reg_i_1_n36
*40 FE_PHN259_coeff_reg_i_5_n36
*41 FE_PHN258_coeff_reg_i_0_n41
*42 FE_PHN257_coeff_reg_i_2_n42
*43 FE_PHN256_coeff_reg_i_1_n42
*44 FE_PHN255_coeff_reg_i_10_n35
*45 FE_PHN254_coeff_reg_i_9_n36
*46 FE_PHN253_blocks_i_7_n39
*47 FE_PHN252_coeff_reg_i_6_n39
*48 FE_PHN251_blocks_i_7_n40
*49 FE_PHN250_coeff_reg_i_6_n38
*50 FE_PHN249_coeff_reg_i_6_n40
*51 FE_PHN248_coeff_reg_i_6_n42
*52 FE_PHN247_FE_OFN0_rst_n
*53 FE_PHN246_FE_OFN1_rst_n
*54 FE_PHN245_coeff_reg_i_10_n40
*55 FE_PHN244_coeff_reg_i_9_n41
*56 FE_PHN243_coeff_reg_i_2_n36
*57 FE_PHN242_coeff_reg_i_9_n33
*58 FE_PHN241_coeff_reg_i_2_n33
*59 FE_PHN240_coeff_reg_i_7_n39
*60 FE_PHN239_coeff_reg_i_8_n33
*61 FE_PHN238_coeff_reg_i_0_n40
*62 FE_PHN237_coeff_reg_i_10_n34
*63 FE_PHN236_coeff_reg_i_7_n36
*64 FE_PHN235_x_reg_n28
*65 FE_PHN234_coeff_reg_i_7_n37
*66 FE_PHN233_coeff_reg_i_8_n41
*67 FE_PHN232_coeff_reg_i_4_n36
*68 FE_PHN231_coeff_reg_i_0_n39
*69 FE_PHN230_coeff_reg_i_8_n36
*70 FE_PHN229_coeff_reg_i_4_n34
*71 FE_PHN228_coeff_reg_i_7_n35
*72 FE_PHN227_coeff_reg_i_5_n34
*73 FE_PHN226_coeff_reg_i_10_n42
*74 FE_PHN225_coeff_reg_i_0_n41
*75 FE_PHN224_coeff_reg_i_7_n42
*76 FE_PHN223_coeff_reg_i_0_n34
*77 FE_PHN222_coeff_reg_i_1_n37
*78 FE_PHN221_x_reg_n24
*79 FE_PHN220_coeff_reg_i_9_n36
*80 FE_PHN219_coeff_reg_i_1_n39
*81 FE_PHN218_coeff_reg_i_6_n34
*82 FE_PHN217_x_reg_n26
*83 FE_PHN216_coeff_reg_i_3_n37
*84 FE_PHN215_coeff_reg_i_1_n42
*85 FE_PHN214_coeff_reg_i_2_n42
*86 FE_PHN213_coeff_reg_i_10_n35
*87 FE_PHN212_coeff_reg_i_9_n35
*88 FE_PHN211_coeff_reg_i_10_n36
*89 FE_PHN210_coeff_reg_i_2_n34
*90 FE_PHN209_coeff_reg_i_2_n40
*91 FE_PHN208_coeff_reg_i_9_n39
*92 FE_PHN207_coeff_reg_i_2_n37
*93 FE_PHN206_coeff_reg_i_2_n35
*94 FE_PHN205_coeff_reg_i_7_n34
*95 FE_PHN204_coeff_reg_i_9_n42
*96 FE_PHN203_coeff_reg_i_10_n37
*97 FE_PHN202_coeff_reg_i_4_n33
*98 FE_PHN201_coeff_reg_i_7_n33
*99 FE_PHN200_coeff_reg_i_1_n36
*100 FE_PHN199_coeff_reg_i_4_n37
*101 FE_PHN198_coeff_reg_i_1_n40
*102 FE_PHN197_coeff_reg_i_1_n41
*103 FE_PHN196_coeff_reg_i_8_n35
*104 FE_PHN195_coeff_reg_i_6_n35
*105 FE_PHN194_coeff_reg_i_5_n33
*106 FE_PHN193_x_reg_n27
*107 FE_PHN192_coeff_reg_i_7_n41
*108 FE_PHN191_coeff_reg_i_3_n42
*109 FE_PHN190_coeff_reg_i_9_n37
*110 FE_PHN189_coeff_reg_i_8_n42
*111 FE_PHN188_coeff_reg_i_1_n33
*112 FE_PHN187_coeff_reg_i_8_n40
*113 FE_PHN186_coeff_reg_i_0_n35
*114 FE_PHN185_coeff_reg_i_4_n40
*115 FE_PHN184_coeff_reg_i_6_n37
*116 FE_PHN183_coeff_reg_i_5_n35
*117 FE_PHN182_coeff_reg_i_4_n39
*118 FE_PHN181_coeff_reg_i_7_n40
*119 FE_PHN180_coeff_reg_i_5_n37
*120 FE_PHN179_coeff_reg_i_6_n36
*121 FE_PHN178_coeff_reg_i_5_n36
*122 FE_PHN177_coeff_reg_i_0_n42
*123 FE_PHN176_coeff_reg_i_3_n35
*124 FE_PHN175_coeff_reg_i_3_n41
*125 FE_PHN174_coeff_reg_i_3_n34
*126 FE_PHN173_coeff_reg_i_0_n36
*127 FE_PHN172_coeff_reg_i_9_n40
*128 FE_PHN171_coeff_reg_i_0_n37
*129 FE_PHN170_coeff_reg_i_8_n39
*130 FE_PHN169_coeff_reg_i_9_n34
*131 FE_PHN168_coeff_reg_i_5_n41
*132 FE_PHN167_coeff_reg_i_10_n41
*133 FE_PHN166_coeff_reg_i_3_n36
*134 FE_PHN165_coeff_reg_i_5_n39
*135 FE_PHN164_coeff_reg_i_0_n33
*136 FE_PHN163_coeff_reg_i_8_n37
*137 FE_PHN162_coeff_reg_i_3_n33
*138 FE_PHN161_coeff_reg_i_6_n33
*139 FE_PHN160_coeff_reg_i_5_n42
*140 FE_PHN159_x_reg_n21
*141 FE_PHN158_x_reg_n22
*142 FE_PHN157_coeff_reg_i_3_n39
*143 FE_PHN156_x_reg_n30
*144 FE_PHN155_coeff_reg_i_4_n41
*145 FE_PHN154_blocks_i_7_n39
*146 FE_PHN153_blocks_i_7_n40
*147 FE_PHN152_coeff_reg_i_6_n40
*148 FE_PHN151_coeff_reg_i_6_n38
*149 FE_PHN150_coeff_reg_i_6_n42
*150 FE_PHN149_coeff_reg_i_6_n39
*151 FE_PHN148_coeff_reg_i_8_n38
*152 FE_PHN147_coeff_reg_i_2_n38
*153 FE_PHN146_x_reg_n25
*154 FE_PHN145_coeff_reg_i_0_n38
*155 FE_PHN144_coeff_reg_i_5_n38
*156 FE_PHN143_coeff_reg_i_10_n38
*157 FE_PHN142_coeff_reg_i_3_n38
*158 FE_PHN141_coeff_reg_i_9_n38
*159 FE_PHN140_coeff_reg_i_1_n38
*160 FE_PHN139_coeff_reg_i_4_n42
*161 FE_PHN138_coeff_reg_i_4_n38
*162 FE_PHN137_coeff_reg_i_7_n38
*163 FE_PHN136_coeff_reg_i_1_n34
*164 FE_PHN135_coeff_reg_i_10_n33
*165 FE_PHN134_x_reg_n29
*166 FE_PHN133_coeff_reg_i_2_n39
*167 FE_PHN132_coeff_reg_i_6_n41
*168 FE_PHN131_coeff_reg_i_10_n39
*169 FE_PHN130_coeff_reg_i_1_n35
*170 FE_PHN129_coeff_reg_i_2_n41
*171 FE_PHN128_coeff_reg_i_8_n34
*172 FE_PHN127_x_reg_n23
*173 FE_PHN126_coeff_reg_i_3_n40
*174 FE_PHN125_coeff_reg_i_5_n40
*175 FE_PHN124_coeff_reg_i_4_n35
*176 FE_PHN123_FE_OFN0_rst_n
*177 FE_PHN122_FE_OFN1_rst_n
*178 FE_PHN121_blocks_i_7_n39
*179 FE_PHN120_coeff_reg_i_6_n40
*180 FE_PHN119_coeff_reg_i_6_n39
*181 FE_PHN118_coeff_reg_i_6_n42
*182 FE_PHN117_coeff_reg_i_6_n38
*183 FE_PHN116_blocks_i_7_n40
*184 FE_PHN115_coeff_reg_i_5_n36
*185 FE_PHN114_coeff_reg_i_0_n41
*186 FE_PHN113_coeff_reg_i_2_n34
*187 FE_PHN112_x_reg_n27
*188 FE_PHN111_coeff_reg_i_4_n36
*189 FE_PHN110_coeff_reg_i_2_n37
*190 FE_PHN109_coeff_reg_i_8_n41
*191 FE_PHN108_coeff_reg_i_3_n37
*192 FE_PHN107_coeff_reg_i_9_n36
*193 FE_PHN106_coeff_reg_i_10_n35
*194 FE_PHN105_coeff_reg_i_10_n42
*195 FE_PHN104_coeff_reg_i_9_n33
*196 FE_PHN103_coeff_reg_i_5_n33
*197 FE_PHN102_coeff_reg_i_7_n35
*198 FE_PHN101_coeff_reg_i_2_n35
*199 FE_PHN100_coeff_reg_i_4_n41
*200 FE_PHN99_coeff_reg_i_2_n40
*201 FE_PHN98_coeff_reg_i_5_n34
*202 FE_PHN97_coeff_reg_i_1_n36
*203 FE_PHN96_coeff_reg_i_1_n42
*204 FE_PHN95_coeff_reg_i_7_n33
*205 FE_PHN94_coeff_reg_i_3_n41
*206 FE_PHN93_coeff_reg_i_7_n41
*207 FE_PHN92_coeff_reg_i_2_n42
*208 FE_PHN91_coeff_reg_i_6_n36
*209 FE_PHN90_coeff_reg_i_9_n37
*210 FE_PHN89_coeff_reg_i_8_n39
*211 FE_PHN88_x_reg_n24
*212 FE_PHN87_coeff_reg_i_3_n34
*213 FE_PHN86_coeff_reg_i_0_n36
*214 FE_PHN85_coeff_reg_i_5_n37
*215 FE_PHN84_coeff_reg_i_1_n37
*216 FE_PHN83_coeff_reg_i_8_n33
*217 FE_PHN82_coeff_reg_i_10_n41
*218 FE_PHN81_coeff_reg_i_7_n42
*219 FE_PHN80_coeff_reg_i_3_n36
*220 FE_PHN79_coeff_reg_i_9_n40
*221 FE_PHN78_x_reg_n29
*222 FE_PHN77_coeff_reg_i_0_n34
*223 FE_PHN76_coeff_reg_i_8_n34
*224 FE_PHN75_coeff_reg_i_2_n33
*225 FE_PHN74_coeff_reg_i_10_n34
*226 FE_PHN73_coeff_reg_i_5_n39
*227 FE_PHN72_coeff_reg_i_10_n37
*228 FE_PHN71_coeff_reg_i_1_n33
*229 FE_PHN70_coeff_reg_i_6_n37
*230 FE_PHN69_coeff_reg_i_8_n35
*231 FE_PHN68_coeff_reg_i_1_n40
*232 FE_PHN67_coeff_reg_i_1_n41
*233 FE_PHN66_coeff_reg_i_8_n37
*234 FE_PHN65_coeff_reg_i_4_n39
*235 FE_PHN64_coeff_reg_i_6_n35
*236 FE_PHN63_coeff_reg_i_5_n42
*237 FE_PHN62_coeff_reg_i_7_n40
*238 FE_PHN61_coeff_reg_i_2_n41
*239 FE_PHN60_coeff_reg_i_5_n40
*240 FE_PHN59_coeff_reg_i_9_n39
*241 FE_PHN58_coeff_reg_i_6_n34
*242 FE_PHN57_coeff_reg_i_8_n42
*243 FE_PHN56_coeff_reg_i_0_n33
*244 FE_PHN55_coeff_reg_i_8_n40
*245 FE_PHN54_x_reg_n26
*246 FE_PHN53_coeff_reg_i_3_n33
*247 FE_PHN52_coeff_reg_i_3_n35
*248 FE_PHN51_x_reg_n21
*249 FE_PHN50_coeff_reg_i_3_n42
*250 FE_PHN49_coeff_reg_i_7_n39
*251 FE_PHN48_coeff_reg_i_0_n35
*252 FE_PHN47_coeff_reg_i_5_n41
*253 FE_PHN46_coeff_reg_i_0_n39
*254 FE_PHN45_coeff_reg_i_6_n33
*255 FE_PHN44_x_reg_n23
*256 FE_PHN43_coeff_reg_i_9_n42
*257 FE_PHN42_x_reg_n22
*258 FE_PHN41_coeff_reg_i_4_n37
*259 FE_PHN40_x_reg_n30
*260 FE_PHN39_coeff_reg_i_10_n36
*261 FE_PHN38_coeff_reg_i_4_n40
*262 FE_PHN37_coeff_reg_i_2_n39
*263 FE_PHN36_coeff_reg_i_3_n40
*264 FE_PHN35_coeff_reg_i_4_n35
*265 FE_PHN34_coeff_reg_i_10_n39
*266 FE_PHN33_coeff_reg_i_3_n39
*267 FE_PHN32_coeff_reg_i_6_n41
*268 FE_PHN31_coeff_reg_i_0_n37
*269 FE_PHN30_coeff_reg_i_9_n35
*270 FE_PHN29_coeff_reg_i_0_n42
*271 FE_PHN28_coeff_reg_i_10_n33
*272 FE_PHN27_coeff_reg_i_1_n34
*273 FE_PHN26_coeff_reg_i_4_n38
*274 FE_PHN25_coeff_reg_i_0_n38
*275 FE_PHN24_coeff_reg_i_10_n38
*276 FE_PHN23_coeff_reg_i_8_n38
*277 FE_PHN22_x_reg_n25
*278 FE_PHN21_coeff_reg_i_3_n38
*279 FE_PHN20_coeff_reg_i_9_n38
*280 FE_PHN19_coeff_reg_i_1_n38
*281 FE_PHN18_coeff_reg_i_2_n38
*282 FE_PHN17_coeff_reg_i_5_n38
*283 FE_PHN16_coeff_reg_i_4_n42
*284 FE_PHN15_coeff_reg_i_9_n34
*285 FE_PHN14_x_reg_n28
*286 FE_PHN13_coeff_reg_i_5_n35
*287 FE_PHN12_coeff_reg_i_4_n33
*288 FE_PHN11_coeff_reg_i_7_n38
*289 FE_PHN10_coeff_reg_i_1_n39
*290 FE_PHN9_coeff_reg_i_7_n36
*291 FE_PHN8_coeff_reg_i_7_n37
*292 FE_PHN7_coeff_reg_i_0_n40
*293 FE_PHN6_coeff_reg_i_8_n36
*294 FE_PHN5_coeff_reg_i_4_n34
*295 FE_PHN4_coeff_reg_i_7_n34
*296 FE_PHN3_coeff_reg_i_9_n41
*297 FE_PHN2_coeff_reg_i_10_n40
*298 FE_PHN1_coeff_reg_i_2_n36
*299 FE_PHN0_coeff_reg_i_1_n35
*300 FE_OFN11_vin
*301 FE_OFN10_vin
*302 FE_OFN9_vin
*303 FE_OFN8_vin
*304 FE_OFN7_vin
*305 FE_OFN6_vin
*306 FE_OFN5_vin
*307 FE_OFN4_vin
*308 FE_OFN3_rst_n
*309 FE_OFN2_rst_n
*310 FE_OFN1_rst_n
*311 FE_OFN0_rst_n
*312 din[9]
*313 din[8]
*314 din[7]
*315 din[6]
*316 din[5]
*317 din[4]
*318 din[3]
*319 din[2]
*320 din[1]
*321 din[0]
*322 b0[9]
*323 b0[8]
*324 b0[7]
*325 b0[6]
*326 b0[5]
*327 b0[4]
*328 b0[3]
*329 b0[2]
*330 b0[1]
*331 b0[0]
*332 b1[9]
*333 b1[8]
*334 b1[7]
*335 b1[6]
*336 b1[5]
*337 b1[4]
*338 b1[3]
*339 b1[2]
*340 b1[1]
*341 b1[0]
*342 b2[9]
*343 b2[8]
*344 b2[7]
*345 b2[6]
*346 b2[5]
*347 b2[4]
*348 b2[3]
*349 b2[2]
*350 b2[1]
*351 b2[0]
*352 b3[9]
*353 b3[8]
*354 b3[7]
*355 b3[6]
*356 b3[5]
*357 b3[4]
*358 b3[3]
*359 b3[2]
*360 b3[1]
*361 b3[0]
*362 b4[9]
*363 b4[8]
*364 b4[7]
*365 b4[6]
*366 b4[5]
*367 b4[4]
*368 b4[3]
*369 b4[2]
*370 b4[1]
*371 b4[0]
*372 b5[9]
*373 b5[8]
*374 b5[7]
*375 b5[6]
*376 b5[5]
*377 b5[4]
*378 b5[3]
*379 b5[2]
*380 b5[1]
*381 b5[0]
*382 b6[9]
*383 b6[8]
*384 b6[7]
*385 b6[6]
*386 b6[5]
*387 b6[4]
*388 b6[3]
*389 b6[2]
*390 b6[1]
*391 b6[0]
*392 b7[9]
*393 b7[8]
*394 b7[7]
*395 b7[6]
*396 b7[5]
*397 b7[4]
*398 b7[3]
*399 b7[2]
*400 b7[1]
*401 b7[0]
*402 b8[9]
*403 b8[8]
*404 b8[7]
*405 b8[6]
*406 b8[5]
*407 b8[4]
*408 b8[3]
*409 b8[2]
*410 b8[1]
*411 b8[0]
*412 b9[9]
*413 b9[8]
*414 b9[7]
*415 b9[6]
*416 b9[5]
*417 b9[4]
*418 b9[3]
*419 b9[2]
*420 b9[1]
*421 b9[0]
*422 b10[9]
*423 b10[8]
*424 b10[7]
*425 b10[6]
*426 b10[5]
*427 b10[4]
*428 b10[3]
*429 b10[2]
*430 b10[1]
*431 b10[0]
*432 dout[9]
*433 dout[8]
*434 dout[7]
*435 dout[6]
*436 dout[5]
*437 dout[4]
*438 dout[3]
*439 dout[2]
*440 dout[1]
*441 dout[0]
*442 rst_n
*443 clk
*444 vin
*445 vout
*446 mult_out_1__9_
*447 mult_out_1__8_
*448 mult_out_1__7_
*449 mult_out_1__6_
*450 mult_out_1__5_
*451 mult_out_1__4_
*452 mult_out_1__3_
*453 mult_out_1__2_
*454 mult_out_1__1_
*455 mult_out_1__0_
*456 mult_out_2__9_
*457 mult_out_2__8_
*458 mult_out_2__7_
*459 mult_out_2__6_
*460 mult_out_2__5_
*461 mult_out_2__4_
*462 mult_out_2__3_
*463 mult_out_2__2_
*464 mult_out_2__1_
*465 mult_out_2__0_
*466 mult_out_3__9_
*467 mult_out_3__8_
*468 mult_out_3__7_
*469 mult_out_3__6_
*470 mult_out_3__5_
*471 mult_out_3__4_
*472 mult_out_3__3_
*473 mult_out_3__2_
*474 mult_out_3__1_
*475 mult_out_3__0_
*476 mult_out_4__9_
*477 mult_out_4__8_
*478 mult_out_4__7_
*479 mult_out_4__6_
*480 mult_out_4__5_
*481 mult_out_4__4_
*482 mult_out_4__3_
*483 mult_out_4__2_
*484 mult_out_4__1_
*485 mult_out_4__0_
*486 mult_out_5__9_
*487 mult_out_5__8_
*488 mult_out_5__7_
*489 mult_out_5__6_
*490 mult_out_5__5_
*491 mult_out_5__4_
*492 mult_out_5__3_
*493 mult_out_5__2_
*494 mult_out_5__1_
*495 mult_out_5__0_
*496 mult_out_6__9_
*497 mult_out_6__8_
*498 mult_out_6__7_
*499 mult_out_6__6_
*500 mult_out_6__5_
*501 mult_out_6__4_
*502 mult_out_6__3_
*503 mult_out_6__2_
*504 mult_out_6__1_
*505 mult_out_6__0_
*506 mult_out_7__9_
*507 mult_out_7__8_
*508 mult_out_7__7_
*509 mult_out_7__6_
*510 mult_out_7__5_
*511 mult_out_7__4_
*512 mult_out_7__3_
*513 mult_out_7__2_
*514 mult_out_7__1_
*515 mult_out_7__0_
*516 mult_out_8__9_
*517 mult_out_8__8_
*518 mult_out_8__7_
*519 mult_out_8__6_
*520 mult_out_8__5_
*521 mult_out_8__4_
*522 mult_out_8__3_
*523 mult_out_8__2_
*524 mult_out_8__1_
*525 mult_out_8__0_
*526 mult_out_9__9_
*527 mult_out_9__8_
*528 mult_out_9__7_
*529 mult_out_9__6_
*530 mult_out_9__5_
*531 mult_out_9__4_
*532 mult_out_9__3_
*533 mult_out_9__2_
*534 mult_out_9__1_
*535 mult_out_9__0_
*536 mult_out_10__9_
*537 mult_out_10__8_
*538 mult_out_10__7_
*539 mult_out_10__6_
*540 mult_out_10__5_
*541 mult_out_10__4_
*542 mult_out_10__3_
*543 mult_out_10__2_
*544 mult_out_10__1_
*545 mult_out_10__0_
*546 vin_reg_out
*547 x_reg_n30
*548 x_reg_n29
*549 x_reg_n28
*550 x_reg_n27
*551 x_reg_n26
*552 x_reg_n25
*553 x_reg_n24
*554 x_reg_n23
*555 x_reg_n22
*556 x_reg_n21
*557 x_reg_n20
*558 x_reg_n19
*559 x_reg_n18
*560 x_reg_n17
*561 x_reg_n16
*562 x_reg_n15
*563 x_reg_n14
*564 x_reg_n13
*565 x_reg_n12
*566 x_reg_n11
*567 x_reg_n10
*568 x_reg_n9
*569 x_reg_n8
*570 x_reg_n7
*571 x_reg_n6
*572 x_reg_n5
*573 x_reg_n4
*574 x_reg_n3
*575 x_reg_n2
*576 x_reg_n1
*577 coeff_reg_i_0_n62
*578 coeff_reg_i_0_n61
*579 coeff_reg_i_0_n60
*580 coeff_reg_i_0_n59
*581 coeff_reg_i_0_n58
*582 coeff_reg_i_0_n57
*583 coeff_reg_i_0_n56
*584 coeff_reg_i_0_n55
*585 coeff_reg_i_0_n54
*586 coeff_reg_i_0_n53
*587 coeff_reg_i_0_n52
*588 coeff_reg_i_0_n51
*589 coeff_reg_i_0_n50
*590 coeff_reg_i_0_n49
*591 coeff_reg_i_0_n48
*592 coeff_reg_i_0_n47
*593 coeff_reg_i_0_n46
*594 coeff_reg_i_0_n45
*595 coeff_reg_i_0_n44
*596 coeff_reg_i_0_n43
*597 coeff_reg_i_0_n42
*598 coeff_reg_i_0_n41
*599 coeff_reg_i_0_n40
*600 coeff_reg_i_0_n39
*601 coeff_reg_i_0_n38
*602 coeff_reg_i_0_n37
*603 coeff_reg_i_0_n36
*604 coeff_reg_i_0_n35
*605 coeff_reg_i_0_n34
*606 coeff_reg_i_0_n33
*607 coeff_reg_i_1_n62
*608 coeff_reg_i_1_n61
*609 coeff_reg_i_1_n60
*610 coeff_reg_i_1_n59
*611 coeff_reg_i_1_n58
*612 coeff_reg_i_1_n57
*613 coeff_reg_i_1_n56
*614 coeff_reg_i_1_n55
*615 coeff_reg_i_1_n54
*616 coeff_reg_i_1_n53
*617 coeff_reg_i_1_n52
*618 coeff_reg_i_1_n51
*619 coeff_reg_i_1_n50
*620 coeff_reg_i_1_n49
*621 coeff_reg_i_1_n48
*622 coeff_reg_i_1_n47
*623 coeff_reg_i_1_n46
*624 coeff_reg_i_1_n45
*625 coeff_reg_i_1_n44
*626 coeff_reg_i_1_n43
*627 coeff_reg_i_1_n42
*628 coeff_reg_i_1_n41
*629 coeff_reg_i_1_n40
*630 coeff_reg_i_1_n39
*631 coeff_reg_i_1_n38
*632 coeff_reg_i_1_n37
*633 coeff_reg_i_1_n36
*634 coeff_reg_i_1_n35
*635 coeff_reg_i_1_n34
*636 coeff_reg_i_1_n33
*637 coeff_reg_i_2_n62
*638 coeff_reg_i_2_n61
*639 coeff_reg_i_2_n60
*640 coeff_reg_i_2_n59
*641 coeff_reg_i_2_n58
*642 coeff_reg_i_2_n57
*643 coeff_reg_i_2_n56
*644 coeff_reg_i_2_n55
*645 coeff_reg_i_2_n54
*646 coeff_reg_i_2_n53
*647 coeff_reg_i_2_n52
*648 coeff_reg_i_2_n51
*649 coeff_reg_i_2_n50
*650 coeff_reg_i_2_n49
*651 coeff_reg_i_2_n48
*652 coeff_reg_i_2_n47
*653 coeff_reg_i_2_n46
*654 coeff_reg_i_2_n45
*655 coeff_reg_i_2_n44
*656 coeff_reg_i_2_n43
*657 coeff_reg_i_2_n42
*658 coeff_reg_i_2_n41
*659 coeff_reg_i_2_n40
*660 coeff_reg_i_2_n39
*661 coeff_reg_i_2_n38
*662 coeff_reg_i_2_n37
*663 coeff_reg_i_2_n36
*664 coeff_reg_i_2_n35
*665 coeff_reg_i_2_n34
*666 coeff_reg_i_2_n33
*667 coeff_reg_i_3_n62
*668 coeff_reg_i_3_n61
*669 coeff_reg_i_3_n60
*670 coeff_reg_i_3_n59
*671 coeff_reg_i_3_n58
*672 coeff_reg_i_3_n57
*673 coeff_reg_i_3_n56
*674 coeff_reg_i_3_n55
*675 coeff_reg_i_3_n54
*676 coeff_reg_i_3_n53
*677 coeff_reg_i_3_n52
*678 coeff_reg_i_3_n51
*679 coeff_reg_i_3_n50
*680 coeff_reg_i_3_n49
*681 coeff_reg_i_3_n48
*682 coeff_reg_i_3_n47
*683 coeff_reg_i_3_n46
*684 coeff_reg_i_3_n45
*685 coeff_reg_i_3_n44
*686 coeff_reg_i_3_n43
*687 coeff_reg_i_3_n42
*688 coeff_reg_i_3_n41
*689 coeff_reg_i_3_n40
*690 coeff_reg_i_3_n39
*691 coeff_reg_i_3_n38
*692 coeff_reg_i_3_n37
*693 coeff_reg_i_3_n36
*694 coeff_reg_i_3_n35
*695 coeff_reg_i_3_n34
*696 coeff_reg_i_3_n33
*697 coeff_reg_i_4_n62
*698 coeff_reg_i_4_n61
*699 coeff_reg_i_4_n60
*700 coeff_reg_i_4_n59
*701 coeff_reg_i_4_n58
*702 coeff_reg_i_4_n57
*703 coeff_reg_i_4_n56
*704 coeff_reg_i_4_n55
*705 coeff_reg_i_4_n54
*706 coeff_reg_i_4_n53
*707 coeff_reg_i_4_n52
*708 coeff_reg_i_4_n51
*709 coeff_reg_i_4_n50
*710 coeff_reg_i_4_n49
*711 coeff_reg_i_4_n48
*712 coeff_reg_i_4_n47
*713 coeff_reg_i_4_n46
*714 coeff_reg_i_4_n45
*715 coeff_reg_i_4_n44
*716 coeff_reg_i_4_n43
*717 coeff_reg_i_4_n42
*718 coeff_reg_i_4_n41
*719 coeff_reg_i_4_n40
*720 coeff_reg_i_4_n39
*721 coeff_reg_i_4_n38
*722 coeff_reg_i_4_n37
*723 coeff_reg_i_4_n36
*724 coeff_reg_i_4_n35
*725 coeff_reg_i_4_n34
*726 coeff_reg_i_4_n33
*727 coeff_reg_i_5_n62
*728 coeff_reg_i_5_n61
*729 coeff_reg_i_5_n60
*730 coeff_reg_i_5_n59
*731 coeff_reg_i_5_n58
*732 coeff_reg_i_5_n57
*733 coeff_reg_i_5_n56
*734 coeff_reg_i_5_n55
*735 coeff_reg_i_5_n54
*736 coeff_reg_i_5_n53
*737 coeff_reg_i_5_n52
*738 coeff_reg_i_5_n51
*739 coeff_reg_i_5_n50
*740 coeff_reg_i_5_n49
*741 coeff_reg_i_5_n48
*742 coeff_reg_i_5_n47
*743 coeff_reg_i_5_n46
*744 coeff_reg_i_5_n45
*745 coeff_reg_i_5_n44
*746 coeff_reg_i_5_n43
*747 coeff_reg_i_5_n42
*748 coeff_reg_i_5_n41
*749 coeff_reg_i_5_n40
*750 coeff_reg_i_5_n39
*751 coeff_reg_i_5_n38
*752 coeff_reg_i_5_n37
*753 coeff_reg_i_5_n36
*754 coeff_reg_i_5_n35
*755 coeff_reg_i_5_n34
*756 coeff_reg_i_5_n33
*757 coeff_reg_i_6_n62
*758 coeff_reg_i_6_n61
*759 coeff_reg_i_6_n60
*760 coeff_reg_i_6_n59
*761 coeff_reg_i_6_n58
*762 coeff_reg_i_6_n57
*763 coeff_reg_i_6_n56
*764 coeff_reg_i_6_n55
*765 coeff_reg_i_6_n54
*766 coeff_reg_i_6_n53
*767 coeff_reg_i_6_n52
*768 coeff_reg_i_6_n51
*769 coeff_reg_i_6_n50
*770 coeff_reg_i_6_n49
*771 coeff_reg_i_6_n48
*772 coeff_reg_i_6_n47
*773 coeff_reg_i_6_n46
*774 coeff_reg_i_6_n45
*775 coeff_reg_i_6_n44
*776 coeff_reg_i_6_n43
*777 coeff_reg_i_6_n42
*778 coeff_reg_i_6_n41
*779 coeff_reg_i_6_n40
*780 coeff_reg_i_6_n39
*781 coeff_reg_i_6_n38
*782 coeff_reg_i_6_n37
*783 coeff_reg_i_6_n36
*784 coeff_reg_i_6_n35
*785 coeff_reg_i_6_n34
*786 coeff_reg_i_6_n33
*787 coeff_reg_i_7_n62
*788 coeff_reg_i_7_n61
*789 coeff_reg_i_7_n60
*790 coeff_reg_i_7_n59
*791 coeff_reg_i_7_n58
*792 coeff_reg_i_7_n57
*793 coeff_reg_i_7_n56
*794 coeff_reg_i_7_n55
*795 coeff_reg_i_7_n54
*796 coeff_reg_i_7_n53
*797 coeff_reg_i_7_n52
*798 coeff_reg_i_7_n51
*799 coeff_reg_i_7_n50
*800 coeff_reg_i_7_n49
*801 coeff_reg_i_7_n48
*802 coeff_reg_i_7_n47
*803 coeff_reg_i_7_n46
*804 coeff_reg_i_7_n45
*805 coeff_reg_i_7_n44
*806 coeff_reg_i_7_n43
*807 coeff_reg_i_7_n42
*808 coeff_reg_i_7_n41
*809 coeff_reg_i_7_n40
*810 coeff_reg_i_7_n39
*811 coeff_reg_i_7_n38
*812 coeff_reg_i_7_n37
*813 coeff_reg_i_7_n36
*814 coeff_reg_i_7_n35
*815 coeff_reg_i_7_n34
*816 coeff_reg_i_7_n33
*817 coeff_reg_i_8_n62
*818 coeff_reg_i_8_n61
*819 coeff_reg_i_8_n60
*820 coeff_reg_i_8_n59
*821 coeff_reg_i_8_n58
*822 coeff_reg_i_8_n57
*823 coeff_reg_i_8_n56
*824 coeff_reg_i_8_n55
*825 coeff_reg_i_8_n54
*826 coeff_reg_i_8_n53
*827 coeff_reg_i_8_n52
*828 coeff_reg_i_8_n51
*829 coeff_reg_i_8_n50
*830 coeff_reg_i_8_n49
*831 coeff_reg_i_8_n48
*832 coeff_reg_i_8_n47
*833 coeff_reg_i_8_n46
*834 coeff_reg_i_8_n45
*835 coeff_reg_i_8_n44
*836 coeff_reg_i_8_n43
*837 coeff_reg_i_8_n42
*838 coeff_reg_i_8_n41
*839 coeff_reg_i_8_n40
*840 coeff_reg_i_8_n39
*841 coeff_reg_i_8_n38
*842 coeff_reg_i_8_n37
*843 coeff_reg_i_8_n36
*844 coeff_reg_i_8_n35
*845 coeff_reg_i_8_n34
*846 coeff_reg_i_8_n33
*847 coeff_reg_i_9_n62
*848 coeff_reg_i_9_n61
*849 coeff_reg_i_9_n60
*850 coeff_reg_i_9_n59
*851 coeff_reg_i_9_n58
*852 coeff_reg_i_9_n57
*853 coeff_reg_i_9_n56
*854 coeff_reg_i_9_n55
*855 coeff_reg_i_9_n54
*856 coeff_reg_i_9_n53
*857 coeff_reg_i_9_n52
*858 coeff_reg_i_9_n51
*859 coeff_reg_i_9_n50
*860 coeff_reg_i_9_n49
*861 coeff_reg_i_9_n48
*862 coeff_reg_i_9_n47
*863 coeff_reg_i_9_n46
*864 coeff_reg_i_9_n45
*865 coeff_reg_i_9_n44
*866 coeff_reg_i_9_n43
*867 coeff_reg_i_9_n42
*868 coeff_reg_i_9_n41
*869 coeff_reg_i_9_n40
*870 coeff_reg_i_9_n39
*871 coeff_reg_i_9_n38
*872 coeff_reg_i_9_n37
*873 coeff_reg_i_9_n36
*874 coeff_reg_i_9_n35
*875 coeff_reg_i_9_n34
*876 coeff_reg_i_9_n33
*877 coeff_reg_i_10_n62
*878 coeff_reg_i_10_n61
*879 coeff_reg_i_10_n60
*880 coeff_reg_i_10_n59
*881 coeff_reg_i_10_n58
*882 coeff_reg_i_10_n57
*883 coeff_reg_i_10_n56
*884 coeff_reg_i_10_n55
*885 coeff_reg_i_10_n54
*886 coeff_reg_i_10_n53
*887 coeff_reg_i_10_n52
*888 coeff_reg_i_10_n51
*889 coeff_reg_i_10_n50
*890 coeff_reg_i_10_n49
*891 coeff_reg_i_10_n48
*892 coeff_reg_i_10_n47
*893 coeff_reg_i_10_n46
*894 coeff_reg_i_10_n45
*895 coeff_reg_i_10_n44
*896 coeff_reg_i_10_n43
*897 coeff_reg_i_10_n42
*898 coeff_reg_i_10_n41
*899 coeff_reg_i_10_n40
*900 coeff_reg_i_10_n39
*901 coeff_reg_i_10_n38
*902 coeff_reg_i_10_n37
*903 coeff_reg_i_10_n36
*904 coeff_reg_i_10_n35
*905 coeff_reg_i_10_n34
*906 coeff_reg_i_10_n33
*907 mult_0_mult_22_n402
*908 mult_0_mult_22_n401
*909 mult_0_mult_22_n400
*910 mult_0_mult_22_n399
*911 mult_0_mult_22_n398
*912 mult_0_mult_22_n397
*913 mult_0_mult_22_n396
*914 mult_0_mult_22_n395
*915 mult_0_mult_22_n394
*916 mult_0_mult_22_n393
*917 mult_0_mult_22_n392
*918 mult_0_mult_22_n391
*919 mult_0_mult_22_n390
*920 mult_0_mult_22_n389
*921 mult_0_mult_22_n388
*922 mult_0_mult_22_n387
*923 mult_0_mult_22_n386
*924 mult_0_mult_22_n385
*925 mult_0_mult_22_n384
*926 mult_0_mult_22_n383
*927 mult_0_mult_22_n382
*928 mult_0_mult_22_n381
*929 mult_0_mult_22_n380
*930 mult_0_mult_22_n379
*931 mult_0_mult_22_n378
*932 mult_0_mult_22_n377
*933 mult_0_mult_22_n376
*934 mult_0_mult_22_n375
*935 mult_0_mult_22_n374
*936 mult_0_mult_22_n373
*937 mult_0_mult_22_n372
*938 mult_0_mult_22_n371
*939 mult_0_mult_22_n370
*940 mult_0_mult_22_n369
*941 mult_0_mult_22_n368
*942 mult_0_mult_22_n367
*943 mult_0_mult_22_n366
*944 mult_0_mult_22_n365
*945 mult_0_mult_22_n364
*946 mult_0_mult_22_n363
*947 mult_0_mult_22_n362
*948 mult_0_mult_22_n361
*949 mult_0_mult_22_n360
*950 mult_0_mult_22_n359
*951 mult_0_mult_22_n358
*952 mult_0_mult_22_n357
*953 mult_0_mult_22_n356
*954 mult_0_mult_22_n355
*955 mult_0_mult_22_n354
*956 mult_0_mult_22_n353
*957 mult_0_mult_22_n352
*958 mult_0_mult_22_n351
*959 mult_0_mult_22_n350
*960 mult_0_mult_22_n349
*961 mult_0_mult_22_n348
*962 mult_0_mult_22_n347
*963 mult_0_mult_22_n346
*964 mult_0_mult_22_n345
*965 mult_0_mult_22_n344
*966 mult_0_mult_22_n343
*967 mult_0_mult_22_n342
*968 mult_0_mult_22_n341
*969 mult_0_mult_22_n340
*970 mult_0_mult_22_n339
*971 mult_0_mult_22_n338
*972 mult_0_mult_22_n337
*973 mult_0_mult_22_n336
*974 mult_0_mult_22_n335
*975 mult_0_mult_22_n334
*976 mult_0_mult_22_n333
*977 mult_0_mult_22_n332
*978 mult_0_mult_22_n331
*979 mult_0_mult_22_n330
*980 mult_0_mult_22_n329
*981 mult_0_mult_22_n328
*982 mult_0_mult_22_n327
*983 mult_0_mult_22_n326
*984 mult_0_mult_22_n325
*985 mult_0_mult_22_n324
*986 mult_0_mult_22_n323
*987 mult_0_mult_22_n322
*988 mult_0_mult_22_n321
*989 mult_0_mult_22_n320
*990 mult_0_mult_22_n319
*991 mult_0_mult_22_n318
*992 mult_0_mult_22_n317
*993 mult_0_mult_22_n316
*994 mult_0_mult_22_n315
*995 mult_0_mult_22_n314
*996 mult_0_mult_22_n313
*997 mult_0_mult_22_n312
*998 mult_0_mult_22_n311
*999 mult_0_mult_22_n310
*1000 mult_0_mult_22_n309
*1001 mult_0_mult_22_n308
*1002 mult_0_mult_22_n307
*1003 mult_0_mult_22_n306
*1004 mult_0_mult_22_n305
*1005 mult_0_mult_22_n304
*1006 mult_0_mult_22_n303
*1007 mult_0_mult_22_n302
*1008 mult_0_mult_22_n301
*1009 mult_0_mult_22_n300
*1010 mult_0_mult_22_n299
*1011 mult_0_mult_22_n298
*1012 mult_0_mult_22_n297
*1013 mult_0_mult_22_n296
*1014 mult_0_mult_22_n295
*1015 mult_0_mult_22_n294
*1016 mult_0_mult_22_n157
*1017 mult_0_mult_22_n156
*1018 mult_0_mult_22_n155
*1019 mult_0_mult_22_n154
*1020 mult_0_mult_22_n153
*1021 mult_0_mult_22_n152
*1022 mult_0_mult_22_n151
*1023 mult_0_mult_22_n148
*1024 mult_0_mult_22_n147
*1025 mult_0_mult_22_n146
*1026 mult_0_mult_22_n145
*1027 mult_0_mult_22_n144
*1028 mult_0_mult_22_n143
*1029 mult_0_mult_22_n142
*1030 mult_0_mult_22_n140
*1031 mult_0_mult_22_n139
*1032 mult_0_mult_22_n138
*1033 mult_0_mult_22_n137
*1034 mult_0_mult_22_n136
*1035 mult_0_mult_22_n135
*1036 mult_0_mult_22_n134
*1037 mult_0_mult_22_n133
*1038 mult_0_mult_22_n132
*1039 mult_0_mult_22_n131
*1040 mult_0_mult_22_n129
*1041 mult_0_mult_22_n128
*1042 mult_0_mult_22_n127
*1043 mult_0_mult_22_n126
*1044 mult_0_mult_22_n124
*1045 mult_0_mult_22_n123
*1046 mult_0_mult_22_n122
*1047 mult_0_mult_22_n121
*1048 mult_0_mult_22_n119
*1049 mult_0_mult_22_n118
*1050 mult_0_mult_22_n117
*1051 mult_0_mult_22_n116
*1052 mult_0_mult_22_n115
*1053 mult_0_mult_22_n114
*1054 mult_0_mult_22_n113
*1055 mult_0_mult_22_n112
*1056 mult_0_mult_22_n111
*1057 mult_0_mult_22_n107
*1058 mult_0_mult_22_n106
*1059 mult_0_mult_22_n105
*1060 mult_0_mult_22_n90
*1061 mult_0_mult_22_n89
*1062 mult_0_mult_22_n88
*1063 mult_0_mult_22_n87
*1064 mult_0_mult_22_n86
*1065 mult_0_mult_22_n85
*1066 mult_0_mult_22_n84
*1067 mult_0_mult_22_n83
*1068 mult_0_mult_22_n82
*1069 mult_0_mult_22_n81
*1070 mult_0_mult_22_n80
*1071 mult_0_mult_22_n79
*1072 mult_0_mult_22_n78
*1073 mult_0_mult_22_n77
*1074 mult_0_mult_22_n76
*1075 mult_0_mult_22_n75
*1076 mult_0_mult_22_n74
*1077 mult_0_mult_22_n73
*1078 mult_0_mult_22_n72
*1079 mult_0_mult_22_n71
*1080 mult_0_mult_22_n70
*1081 mult_0_mult_22_n69
*1082 mult_0_mult_22_n68
*1083 mult_0_mult_22_n67
*1084 mult_0_mult_22_n66
*1085 mult_0_mult_22_n65
*1086 mult_0_mult_22_n64
*1087 mult_0_mult_22_n63
*1088 mult_0_mult_22_n62
*1089 mult_0_mult_22_n61
*1090 mult_0_mult_22_n60
*1091 mult_0_mult_22_n59
*1092 mult_0_mult_22_n58
*1093 mult_0_mult_22_n57
*1094 mult_0_mult_22_n56
*1095 mult_0_mult_22_n55
*1096 mult_0_mult_22_n54
*1097 mult_0_mult_22_n53
*1098 mult_0_mult_22_n52
*1099 mult_0_mult_22_n51
*1100 mult_0_mult_22_n50
*1101 mult_0_mult_22_n48
*1102 mult_0_mult_22_n47
*1103 mult_0_mult_22_n46
*1104 mult_0_mult_22_n45
*1105 mult_0_mult_22_n44
*1106 mult_0_mult_22_n43
*1107 mult_0_mult_22_n42
*1108 mult_0_mult_22_n41
*1109 mult_0_mult_22_n40
*1110 mult_0_mult_22_n39
*1111 mult_0_mult_22_n38
*1112 mult_0_mult_22_n37
*1113 mult_0_mult_22_n35
*1114 mult_0_mult_22_n34
*1115 mult_0_mult_22_n33
*1116 mult_0_mult_22_n32
*1117 mult_0_mult_22_n31
*1118 mult_0_mult_22_n30
*1119 mult_0_mult_22_n29
*1120 mult_0_mult_22_n28
*1121 mult_0_mult_22_n27
*1122 mult_0_mult_22_n25
*1123 mult_0_mult_22_n24
*1124 mult_0_mult_22_n23
*1125 mult_0_mult_22_n22
*1126 mult_0_mult_22_n21
*1127 mult_0_mult_22_n20
*1128 mult_0_mult_22_n10
*1129 mult_0_mult_22_n9
*1130 mult_0_mult_22_n8
*1131 mult_0_mult_22_n7
*1132 mult_0_mult_22_n6
*1133 mult_0_mult_22_n5
*1134 mult_0_mult_22_n4
*1135 mult_0_mult_22_n3
*1136 mult_0_mult_22_n2
*1137 blocks_i_1_n62
*1138 blocks_i_1_n61
*1139 blocks_i_1_n60
*1140 blocks_i_1_n59
*1141 blocks_i_1_n58
*1142 blocks_i_1_n57
*1143 blocks_i_1_n56
*1144 blocks_i_1_n55
*1145 blocks_i_1_n54
*1146 blocks_i_1_n53
*1147 blocks_i_1_n52
*1148 blocks_i_1_n51
*1149 blocks_i_1_n50
*1150 blocks_i_1_n49
*1151 blocks_i_1_n48
*1152 blocks_i_1_n47
*1153 blocks_i_1_n46
*1154 blocks_i_1_n45
*1155 blocks_i_1_n44
*1156 blocks_i_1_n43
*1157 blocks_i_1_n42
*1158 blocks_i_1_n41
*1159 blocks_i_1_n40
*1160 blocks_i_1_n39
*1161 blocks_i_1_n38
*1162 blocks_i_1_n37
*1163 blocks_i_1_n36
*1164 blocks_i_1_n35
*1165 blocks_i_1_n34
*1166 blocks_i_1_n33
*1167 mult_i_1_mult_22_n402
*1168 mult_i_1_mult_22_n401
*1169 mult_i_1_mult_22_n400
*1170 mult_i_1_mult_22_n399
*1171 mult_i_1_mult_22_n398
*1172 mult_i_1_mult_22_n397
*1173 mult_i_1_mult_22_n396
*1174 mult_i_1_mult_22_n395
*1175 mult_i_1_mult_22_n394
*1176 mult_i_1_mult_22_n393
*1177 mult_i_1_mult_22_n392
*1178 mult_i_1_mult_22_n391
*1179 mult_i_1_mult_22_n390
*1180 mult_i_1_mult_22_n389
*1181 mult_i_1_mult_22_n388
*1182 mult_i_1_mult_22_n387
*1183 mult_i_1_mult_22_n386
*1184 mult_i_1_mult_22_n385
*1185 mult_i_1_mult_22_n384
*1186 mult_i_1_mult_22_n383
*1187 mult_i_1_mult_22_n382
*1188 mult_i_1_mult_22_n381
*1189 mult_i_1_mult_22_n380
*1190 mult_i_1_mult_22_n379
*1191 mult_i_1_mult_22_n378
*1192 mult_i_1_mult_22_n377
*1193 mult_i_1_mult_22_n376
*1194 mult_i_1_mult_22_n375
*1195 mult_i_1_mult_22_n374
*1196 mult_i_1_mult_22_n373
*1197 mult_i_1_mult_22_n372
*1198 mult_i_1_mult_22_n371
*1199 mult_i_1_mult_22_n370
*1200 mult_i_1_mult_22_n369
*1201 mult_i_1_mult_22_n368
*1202 mult_i_1_mult_22_n367
*1203 mult_i_1_mult_22_n366
*1204 mult_i_1_mult_22_n365
*1205 mult_i_1_mult_22_n364
*1206 mult_i_1_mult_22_n363
*1207 mult_i_1_mult_22_n362
*1208 mult_i_1_mult_22_n361
*1209 mult_i_1_mult_22_n360
*1210 mult_i_1_mult_22_n359
*1211 mult_i_1_mult_22_n358
*1212 mult_i_1_mult_22_n357
*1213 mult_i_1_mult_22_n356
*1214 mult_i_1_mult_22_n355
*1215 mult_i_1_mult_22_n354
*1216 mult_i_1_mult_22_n353
*1217 mult_i_1_mult_22_n352
*1218 mult_i_1_mult_22_n351
*1219 mult_i_1_mult_22_n350
*1220 mult_i_1_mult_22_n349
*1221 mult_i_1_mult_22_n348
*1222 mult_i_1_mult_22_n347
*1223 mult_i_1_mult_22_n346
*1224 mult_i_1_mult_22_n345
*1225 mult_i_1_mult_22_n344
*1226 mult_i_1_mult_22_n343
*1227 mult_i_1_mult_22_n342
*1228 mult_i_1_mult_22_n341
*1229 mult_i_1_mult_22_n340
*1230 mult_i_1_mult_22_n339
*1231 mult_i_1_mult_22_n338
*1232 mult_i_1_mult_22_n337
*1233 mult_i_1_mult_22_n336
*1234 mult_i_1_mult_22_n335
*1235 mult_i_1_mult_22_n334
*1236 mult_i_1_mult_22_n333
*1237 mult_i_1_mult_22_n332